Version 4
SHEET 1 880 680
WIRE 160 80 48 80
WIRE 336 80 240 80
WIRE 48 128 48 80
WIRE 336 128 336 80
WIRE 48 256 48 208
WIRE 192 256 48 256
WIRE 336 256 336 192
WIRE 336 256 192 256
WIRE 192 272 192 256
FLAG 192 272 0
SYMBOL voltage 48 112 R0
WINDOW 3 24 44 Left 2
WINDOW 123 24 124 Left 2
WINDOW 39 0 0 Left 0
SYMATTR InstName V1
SYMATTR Value SINE(0 10 50)
SYMBOL res 256 64 R90
WINDOW 0 0 56 VBottom 2
WINDOW 3 32 56 VTop 2
SYMATTR InstName R1
SYMATTR Value 10k
SYMBOL cap 320 128 R0
SYMATTR InstName C1
SYMATTR Value 10µ
TEXT -152 168 Left 2 !.tran 0 0.1 0
