Version 4
SHEET 1 880 680
WIRE 160 -48 48 -48
WIRE 336 -48 240 -48
WIRE 48 0 48 -48
WIRE 336 0 336 -48
WIRE 48 128 48 80
WIRE 192 128 48 128
WIRE 336 128 336 64
WIRE 336 128 192 128
WIRE 192 160 192 128
FLAG 192 160 0
SYMBOL res 256 -64 R90
WINDOW 0 0 56 VBottom 2
WINDOW 3 32 56 VTop 2
SYMATTR InstName R1
SYMATTR Value 10k
SYMBOL cap 320 0 R0
SYMATTR InstName C1
SYMATTR Value 0.01µ
SYMBOL voltage 48 -16 R0
WINDOW 0 12 12 Left 2
WINDOW 123 13 98 Left 2
WINDOW 39 0 0 Left 0
SYMATTR InstName V1
SYMATTR Value ""
SYMATTR Value2 AC 1
TEXT 32 -128 Left 2 ;First Order Low Pass Passive Filter
TEXT 56 192 Left 2 !.ac dec 100 1 100MEG
