Version 4
SHEET 1 880 740
WIRE 80 -128 -304 -128
WIRE 528 -128 160 -128
WIRE 432 -32 272 -32
WIRE 272 16 272 -32
WIRE 432 16 432 -32
WIRE 192 112 -80 112
WIRE 272 144 272 96
WIRE -496 160 -624 160
WIRE -304 160 -304 -128
WIRE -304 160 -416 160
WIRE -208 160 -304 160
WIRE -80 160 -80 112
WIRE -80 160 -144 160
WIRE 240 160 96 160
WIRE 528 176 528 -128
WIRE 528 176 304 176
WIRE 624 176 528 176
WIRE 192 192 192 112
WIRE 240 192 192 192
WIRE -624 208 -624 160
WIRE -304 224 -304 160
WIRE -80 224 -80 160
WIRE 272 240 272 208
WIRE -624 352 -624 288
WIRE -304 352 -304 288
WIRE -80 352 -80 304
WIRE 272 352 272 320
WIRE 96 512 96 160
WIRE 288 512 96 512
WIRE 528 512 528 176
WIRE 528 512 368 512
WIRE 96 576 96 512
WIRE 96 720 96 656
FLAG -624 352 0
FLAG 272 352 0
FLAG 432 16 0
FLAG -304 352 0
FLAG -80 352 0
FLAG 96 720 0
FLAG 624 176 Vout
IOPIN 624 176 Out
SYMBOL Opamps\\UniversalOpamp2 272 176 R0
SYMATTR InstName U1
SYMBOL voltage 272 112 R180
WINDOW 0 24 96 Left 2
WINDOW 3 24 16 Left 2
WINDOW 123 0 0 Left 0
WINDOW 39 0 0 Left 0
SYMATTR InstName V1
SYMATTR Value 10
SYMBOL voltage 272 336 R180
WINDOW 0 24 96 Left 2
WINDOW 3 24 16 Left 2
WINDOW 123 0 0 Left 0
WINDOW 39 0 0 Left 0
SYMATTR InstName V2
SYMATTR Value 10
SYMBOL res 80 560 R0
SYMATTR InstName R1
SYMATTR Value 10k
SYMBOL res 384 496 R90
WINDOW 0 0 56 VBottom 2
WINDOW 3 32 56 VTop 2
SYMATTR InstName R2
SYMATTR Value 20k
SYMBOL res 176 -144 R90
WINDOW 0 0 56 VBottom 2
WINDOW 3 32 56 VTop 2
SYMATTR InstName R3
SYMATTR Value 1k
SYMBOL res -400 144 R90
WINDOW 0 0 56 VBottom 2
WINDOW 3 32 56 VTop 2
SYMATTR InstName R4
SYMATTR Value 10k
SYMBOL res -64 320 R180
WINDOW 0 36 76 Left 2
WINDOW 3 36 40 Left 2
SYMATTR InstName R5
SYMATTR Value 10k
SYMBOL cap -320 224 R0
SYMATTR InstName C1
SYMATTR Value 0.1µ
SYMBOL cap -144 144 R90
WINDOW 0 0 32 VBottom 2
WINDOW 3 32 32 VTop 2
SYMATTR InstName C2
SYMATTR Value 0.1µ
SYMBOL voltage -624 192 R0
WINDOW 123 24 124 Left 2
WINDOW 39 0 0 Left 0
SYMATTR InstName V3
SYMATTR Value ""
SYMATTR Value2 AC 1
TEXT -344 -200 Left 4 ;Sallen Key Bandpass Second Order Active Filter
TEXT -720 432 Left 2 !.ac dec 100 1 1000k
