Version 4
SHEET 1 880 708
WIRE 96 -128 -192 -128
WIRE 464 -128 176 -128
WIRE 368 -48 272 -48
WIRE 368 -32 368 -48
WIRE 272 16 272 -48
WIRE 192 96 0 96
WIRE 272 144 272 96
WIRE -352 160 -448 160
WIRE -192 160 -192 -128
WIRE -192 160 -288 160
WIRE -144 160 -192 160
WIRE 0 160 0 96
WIRE 0 160 -80 160
WIRE 240 160 144 160
WIRE 464 176 464 -128
WIRE 464 176 304 176
WIRE 560 176 464 176
WIRE 192 192 192 96
WIRE 240 192 192 192
WIRE -448 224 -448 160
WIRE 0 224 0 160
WIRE 272 256 272 208
WIRE 0 352 0 304
WIRE -448 384 -448 304
WIRE 144 464 144 160
WIRE 272 464 144 464
WIRE 464 464 464 176
WIRE 464 464 352 464
WIRE 144 528 144 464
WIRE 144 688 144 608
FLAG 0 352 0
FLAG -448 384 0
FLAG 144 688 0
FLAG 272 336 0
FLAG 368 -32 0
FLAG 560 176 Vout
IOPIN 560 176 Out
SYMBOL Opamps\\UniversalOpamp2 272 176 R0
SYMATTR InstName U1
SYMBOL voltage 272 112 R180
WINDOW 0 24 96 Left 2
WINDOW 3 24 16 Left 2
WINDOW 123 0 0 Left 0
WINDOW 39 0 0 Left 0
SYMATTR InstName V1
SYMATTR Value 10
SYMBOL voltage 272 352 R180
WINDOW 0 24 96 Left 2
WINDOW 3 24 16 Left 2
WINDOW 123 0 0 Left 0
WINDOW 39 0 0 Left 0
SYMATTR InstName V2
SYMATTR Value 10
SYMBOL cap -288 144 R90
WINDOW 0 0 32 VBottom 2
WINDOW 3 32 32 VTop 2
SYMATTR InstName C1
SYMATTR Value 1µ
SYMBOL cap -80 144 R90
WINDOW 0 0 32 VBottom 2
WINDOW 3 32 32 VTop 2
SYMATTR InstName C2
SYMATTR Value 1µ
SYMBOL res -16 208 R0
SYMATTR InstName R1
SYMATTR Value 10k
SYMBOL res 128 512 R0
SYMATTR InstName R2
SYMATTR Value 10k
SYMBOL res 368 448 R90
WINDOW 0 0 56 VBottom 2
WINDOW 3 32 56 VTop 2
SYMATTR InstName R3
SYMATTR Value 20k
SYMBOL res 192 -144 R90
WINDOW 0 0 56 VBottom 2
WINDOW 3 32 56 VTop 2
SYMATTR InstName R4
SYMATTR Value 10k
SYMBOL voltage -448 208 R0
WINDOW 123 24 124 Left 2
WINDOW 39 0 0 Left 0
SYMATTR InstName V3
SYMATTR Value ""
SYMATTR Value2 AC 1
TEXT -136 -216 Left 2 ;Sallen Key High Pass Second order Active Filter
TEXT -544 464 Left 2 !.ac dec 100 1 1000k
