Version 4
SHEET 1 880 680
WIRE 144 -96 -96 -96
WIRE 464 -96 208 -96
WIRE 352 0 272 0
WIRE 272 16 272 0
WIRE 352 16 352 0
WIRE 208 112 48 112
WIRE 272 128 272 96
WIRE -256 144 -336 144
WIRE -96 144 -96 -96
WIRE -96 144 -176 144
WIRE -64 144 -96 144
WIRE 48 144 48 112
WIRE 48 144 16 144
WIRE 240 144 160 144
WIRE 464 160 464 -96
WIRE 464 160 304 160
WIRE 512 160 464 160
WIRE 208 176 208 112
WIRE 240 176 208 176
WIRE -336 208 -336 144
WIRE 48 208 48 144
WIRE 272 224 272 192
WIRE 48 336 48 272
WIRE -336 352 -336 288
WIRE 160 368 160 144
WIRE 288 368 160 368
WIRE 464 368 464 160
WIRE 464 368 368 368
WIRE 160 400 160 368
WIRE 160 528 160 480
FLAG 272 304 0
FLAG -336 352 0
FLAG 48 336 0
FLAG 160 528 0
FLAG 352 16 0
FLAG 512 160 Vout
IOPIN 512 160 Out
SYMBOL Opamps\\UniversalOpamp2 272 160 R0
SYMATTR InstName U1
SYMBOL res -160 128 R90
WINDOW 0 0 56 VBottom 2
WINDOW 3 32 56 VTop 2
SYMATTR InstName R1
SYMATTR Value 10k
SYMBOL res 32 128 R90
WINDOW 0 0 56 VBottom 2
WINDOW 3 32 56 VTop 2
SYMATTR InstName R2
SYMATTR Value 10k
SYMBOL res 144 384 R0
SYMATTR InstName R3
SYMATTR Value 10k
SYMBOL res 384 352 R90
WINDOW 0 0 56 VBottom 2
WINDOW 3 32 56 VTop 2
SYMATTR InstName R4
SYMATTR Value 20k
SYMBOL voltage 272 112 R180
WINDOW 0 24 96 Left 2
WINDOW 3 24 16 Left 2
WINDOW 123 0 0 Left 0
WINDOW 39 0 0 Left 0
SYMATTR InstName V1
SYMATTR Value 10
SYMBOL voltage 272 320 R180
WINDOW 0 24 96 Left 2
WINDOW 3 24 16 Left 2
WINDOW 123 0 0 Left 0
WINDOW 39 0 0 Left 0
SYMATTR InstName V2
SYMATTR Value 10
SYMBOL cap 208 -112 R90
WINDOW 0 0 32 VBottom 2
WINDOW 3 32 32 VTop 2
SYMATTR InstName C1
SYMATTR Value 0.1µ
SYMBOL cap 32 208 R0
SYMATTR InstName C2
SYMATTR Value 0.1µ
SYMBOL voltage -336 192 R0
WINDOW 123 24 124 Left 2
WINDOW 39 0 0 Left 0
SYMATTR InstName V3
SYMATTR Value ""
SYMATTR Value2 AC 1
TEXT -152 -192 Left 2 ;Sallen Key Low Pass Second Order Active Filter
TEXT -632 248 Left 2 !.ac dec 100 1 1000k
